LTspice 24.1.9 for Windows
Circuit: C:\Users\brand\Documents\GitHub\USB-Mic\src\SPICE\Draft1.net
Start Time: Thu Jun 26 15:26:35 2025
solver = Normal
Maximum thread count: 16
tnom = 27
temp = 27
method = trap
.OP point found by inspection.
Total elapsed time: 0.033 seconds.

Files loaded:
C:\Users\brand\Documents\GitHub\USB-Mic\src\SPICE\Draft1.net

